pglib_opf_case2000_ieee_rev.py
##########################################################################
####                                                                  #####
####    IEEE PES Power Grid Library - Optimal Power Flow - v20.07     #####
####          (https://github.com/power-grid-lib/pglib-opf)           #####
####             Benchmark Group - Small Angle Difference             #####
####                         12 - July - 2020                         #####
####                                                                  #####
###########################################################################
from numpy import array
def pglib_opf_case2000_ieee_rev():

    ppc = {"version": '2'}
    ppc["baseMVA"] = 100.0
    #flag for Security Constrained OPF(SCOPF)
    ppc["scopf"] = 1
    
    ## bus data
    #	bus_i	type	Pd	Qd	Gs	Bs	area	Vm	Va	baseKV	zone	Vmax	Vmin
    ppc["bus"] = array([
 [1, 1, 0, 0, 0, 0, 1, 1, 0, 138, 1, 1.1, 0.9, ], 
[2, 1, 0, 0, 0, 0, 1, 1, 0, 69, 1, 1.1, 0.9, ], 
[3, 1, 63.0326, 30.4992, 0, 0, 1, 1, 0, 138, 1, 1.1, 0.9, ], 
[4, 1, 39.8727, 2.6867, 0, 0, 1, 1, 0, 69, 1, 1.1, 0.9, ], 
[5, 1, 59.8612, 29.4656, 0, 0, 1, 1, 0, 69, 1, 1.1, 0.9, ], 
[6, 1, 52.6176, 4.2656, 0, 0, 1, 1, 0, 69, 1, 1.1, 0.9, ], 
[7, 1, 56.6696, 12.1889, 0, 0, 1, 1, 0, 138, 1, 1.1, 0.9, ], 
[8, 1, 39.1129, 10.2332, 0, 0, 1, 1, 0, 69, 1, 1.1, 0.9, ], 
[9, 1, 0, 0, 0, 0, 1, 1, 0, 138, 1, 1.1, 0.9, ], 
[10, 1, 0, 0, 0, 0, 1, 1, 0, 69, 1, 1.1, 0.9, ], 
[11, 1, 88.0828, 28.9397, 0, 0, 1, 1, 0, 138, 1, 1.1, 0.9, ], 
[12, 1, 0, 0, 0, 0, 1, 1, 0, 138, 1, 1.1, 0.9, ], 
[13, 1, 82.6169, 17.6934, 0, 0, 1, 1, 0, 69, 1, 1.1, 0.9, ], 
[14, 1, 0, 0, 0, 0, 1, 1, 0, 138, 1, 1.1, 0.9, ], 
[15, 1, 124.0879, 60.3009, 0, 0, 1, 1, 0, 138, 1, 1.1, 0.9, ], 
[16, 1, 58.1643, 11.2895, 0, 0, 1, 1, 0, 69, 1, 1.1, 0.9, ], 
[17, 1, 45.6352, 27.0139, 0, 0, 1, 1, 0, 69, 1, 1.1, 0.9, ], 
[18, 1, 0, 0, 0, 0, 1, 1, 0, 69, 1, 1.1, 0.9, ], 
[19, 1, 16.2531, 1.8417, 0, 0, 1, 1, 0, 69, 1, 1.1, 0.9, ], 
[20, 1, 0, 0, 0, 0, 1, 1, 0, 138, 1, 1.1, 0.9, ], 
[21, 1, 108.9423, 13.3479, 0, 0, 1, 1, 0, 69, 1, 1.1, 0.9, ], 
[22, 1, 0, 0, 0, 0, 1, 1, 0, 138, 1, 1.1, 0.9, ], 
[23, 1, 47.798, 7.0533, 0, 0, 1, 1, 0, 69, 1, 1.1, 0.9, ], 
[24, 1, 13.2595, 2.9336, 0, 0, 1, 1, 0, 69, 1, 1.1, 0.9, ], 
[25, 1, 16.0103, 1.9122, 0, 0, 1, 1, 0, 69, 1, 1.1, 0.9, ], 
[26, 1, 0, 0, 0, 0, 1, 1, 0, 138, 1, 1.1, 0.9, ], 
[27, 1, 60.2344, 15.9823, 0, 0, 1, 1, 0, 69, 1, 1.1, 0.9, ], 
[28, 1, 0, 0, 0, 0, 1, 1, 0, 138, 1, 1.1, 0.9, ], 
[29, 1, 79.6333, 31.0919, 0, 0, 1, 1, 0, 69, 1, 1.1, 0.9, ], 
[30, 1, 59.4479, 1.3232, 0, 0, 1, 1, 0, 138, 1, 1.1, 0.9, ], 
[31, 1, 0, 0, 0, 0, 1, 1, 0, 138, 1, 1.1, 0.9, ], 
[32, 1, 0, 0, 0, 0, 1, 1, 0, 69, 1, 1.1, 0.9, ], 
[33, 1, 51.1498, 11.8181, 0, 0, 1, 1, 0, 138, 1, 1.1, 0.9, ], 
[34, 1, 54.7723, 14.831, 0, 0, 1, 1, 0, 138, 1, 1.1, 0.9, ], 
[35, 1, 61.3357, 11.4227, 0, 0, 1, 1, 0, 69, 1, 1.1, 0.9, ], 
[36, 1, 46.0587, 5.1848, 0, 0, 1, 1, 0, 69, 1, 1.1, 0.9, ], 
[37, 1, 71.2872, 8.0567, 0, 0, 1, 1, 0, 69, 1, 1.1, 0.9, ], 
[38, 1, 20.4985, 5.1283, 0, 0, 1, 1, 0, 69, 1, 1.1, 0.9, ], 
[39, 1, 0, 0, 0, 0, 1, 1, 0, 138, 1, 1.1, 0.9, ], 
[40, 1, 56.7915, 31.3332, 0, 0, 1, 1, 0, 69, 1, 1.1, 0.9, ], 
[41, 1, 33.3463, 11.1551, 0, 0, 1, 1, 0, 69, 1, 1.1, 0.9, ], 
[42, 1, 0, 0, 0, 0, 1, 1, 0, 138, 1, 1.1, 0.9, ], 
[43, 1, 0, 0, 0, 0, 1, 1, 0, 69, 1, 1.1, 0.9, ], 
[44, 1, 67.7326, 38.3761, 0, 0, 1, 1, 0, 138, 1, 1.1, 0.9, ], 
[45, 1, 20.458, 3.8263, 0, 0, 1, 1, 0, 69, 1, 1.1, 0.9, ], 
[46, 1, 21.4102, 4.0268, 0, 0, 1, 1, 0, 69, 1, 1.1, 0.9, ], 
[47, 1, 0, 0, 0, 0, 1, 1, 0, 345, 1, 1.1, 0.9, ], 
[48, 1, 0, 0, 0, 0, 1, 1, 0, 138, 1, 1.1, 0.9, ], 
[49, 1, 0, 0, 0, 0, 1, 1, 0, 69, 1, 1.1, 0.9, ], 
[50, 1, 42.771, 18.2076, 0, 0, 1, 1, 0, 345, 1, 1.1, 0.9, ], 
[51, 1, 26.8671, 13.8871, 0, 0, 1, 1, 0, 69, 1, 1.1, 0.9, ], 
[52, 1, 0, 0, 0, 0, 1, 1, 0, 345, 1, 1.1, 0.9, ], 
[53, 1, 0, 0, 0, 0, 1, 1, 0, 138, 1, 1.1, 0.9, ], 
[54, 1, 65.4319, 21.1047, 0, 0, 1, 1, 0, 345, 1, 1.1, 0.9, ], 
[55, 1, 0, 0, 0, 0, 1, 1, 0, 138, 1, 1.1, 0.9, ], 
[56, 1, 0, 0, 0, 0, 1, 1, 0, 69, 1, 1.1, 0.9, ], 
[57, 1, 39.4283, 2.9001, 0, 0, 1, 1, 0, 138, 1, 1.1, 0.9, ], 
[58, 1, 29.1264, 11.7441, 0, 0, 1, 1, 0, 69, 1, 1.1, 0.9, ], 
[59, 1, 21.8082, 7.3975, 0, 0, 1, 1, 0, 69, 1, 1.1, 0.9, ], 
[60, 1, 16.0846, 0.51573, 0, 0, 1, 1, 0, 69, 1, 1.1, 0.9, ], 
[61, 1, 8.1955, 2.4931, 0, 0, 1, 1, 0, 69, 1, 1.1, 0.9, ], 
[62, 1, 7.7018, 4.9119, 0, 0, 1, 1, 0, 69, 1, 1.1, 0.9, ], 
[63, 1, 0, 0, 0, 0, 1, 1, 0, 138, 1, 1.1, 0.9, ], 
[64, 1, 0, 0, 0, 0, 1, 1, 0, 69, 1, 1.1, 0.9, ], 
[65, 1, 16.8453, 8.7799, 0, 0, 1, 1, 0, 138, 1, 1.1, 0.9, ], 
[66, 1, 7.844, 2.9993, 0, 0, 1, 1, 0, 69, 1, 1.1, 0.9, ], 
[67, 1, 0, 0, 0, 0, 1, 1, 0, 138, 1, 1.1, 0.9, ], 
[68, 1, 0, 0, 0, 0, 1, 1, 0, 69, 1, 1.1, 0.9, ], 
[69, 1, 9.593, 5.0817, 0, 0, 1, 1, 0, 138, 1, 1.1, 0.9, ], 
[70, 1, 7.316, 0.62437, 0, 0, 1, 1, 0, 69, 1, 1.1, 0.9, ], 
[71, 1, 0, 0, 0, 0, 1, 1, 0, 138, 1, 1.1, 0.9, ], 
[72, 1, 12.0297, 4.0129, 0, 0, 1, 1, 0, 69, 1, 1.1, 0.9, ], 
[73, 1, 0, 0, 0, 0, 1, 1, 0, 138, 1, 1.1, 0.9, ], 
[74, 1, 12.8575, 1.0587, 0, 0, 1, 1, 0, 69, 1, 1.1, 0.9, ], 
[75, 1, 14.9337, 4.8783, 0, 0, 1, 1, 0, 69, 1, 1.1, 0.9, ], 
[76, 1, 0, 0, 0, 0, 1, 1, 0, 138, 1, 1.1, 0.9, ], 
[77, 1, 0, 0, 0, 0, 1, 1, 0, 69, 1, 1.1, 0.9, ], 
[78, 1, 26.4266, 4.6764, 0, 0, 1, 1, 0, 138, 1, 1.1, 0.9, ], 
[79, 1, 0, 0, 0, 0, 1, 1, 0, 138, 1, 1.1, 0.9, ], 
[80, 1, 0, 0, 0, 0, 1, 1, 0, 69, 1, 1.1, 0.9, ], 
[81, 1, 8.8551, 1.674, 0, 0, 1, 1, 0, 138, 1, 1.1, 0.9, ], 
[82, 1, 7.7923, 0.51391, 0, 0, 1, 1, 0, 69, 1, 1.1, 0.9, ], 
[83, 1, 0, 0, 0, 0, 1, 1, 0, 138, 1, 1.1, 0.9, ], 
[84, 1, 16.1438, 5.1893, 0, 0, 1, 1, 0, 138, 1, 1.1, 0.9, ], 
[85, 1, 0, 0, 0, 0, 1, 1, 0, 138, 1, 1.1, 0.9, ], 
[86, 1, 0, 0, 0, 0, 1, 1, 0, 138, 1, 1.1, 0.9, ], 
[87, 1, 0, 0, 0, 0, 1, 1, 0, 69, 1, 1.1, 0.9, ], 
[88, 1, 52.3867, 12.736, 0, 0, 1, 1, 0, 138, 1, 1.1, 0.9, ], 
[89, 1, 0, 0, 0, 0, 1, 1, 0, 138, 1, 1.1, 0.9, ], 
[90, 1, 0, 0, 0, 0, 1, 1, 0, 69, 1, 1.1, 0.9, ], 
[91, 1, 63.939, 10.2665, 0, 0, 1, 1, 0, 138, 1, 1.1, 0.9, ], 
[92, 1, 29.0539, 14.0459, 0, 0, 1, 1, 0, 69, 1, 1.1, 0.9, ], 
[93, 1, 18.5321, 4.3306, 0, 0, 1, 1, 0, 69, 1, 1.1, 0.9, ], 
[94, 1, 19.4876, 3.2734, 0, 0, 1, 1, 0, 69, 1, 1.1, 0.9, ], 
[95, 1, 60.0431, 15.9238, 0, 0, 1, 1, 0, 69, 1, 1.1, 0.9, ], 
[96, 1, 0, 0, 0, 0, 1, 1, 0, 345, 1, 1.1, 0.9, ], 
[97, 1, 0, 0, 0, 0, 1, 1, 0, 138, 1, 1.1, 0.9, ], 
[98, 1, 0, 0, 0, 0, 1, 1, 0, 69, 1, 1.1, 0.9, ], 
[99, 1, 72.5196, 26.9143, 0, 0, 1, 1, 0, 138, 1, 1.1, 0.9, ], 
[100, 1, 0, 0, 0, 0, 1, 1, 0, 138, 1, 1.1, 0.9, ], 
[101, 1, 0, 0, 0, 0, 1, 1, 0, 69, 1, 1.1, 0.9, ], 
[102, 1, 80.2132, 11.6971, 0, 0, 1, 1, 0, 138, 1, 1.1, 0.9, ], 
[103, 1, 42.8641, 2.0052, 0, 0, 1, 1, 0, 69, 1, 1.1, 0.9, ], 
[104, 1, 59.5032, 21.2169, 0, 0, 1, 1, 0, 69, 1, 1.1, 0.9, ], 
[105, 1, 0, 0, 0, 0, 1, 1, 0, 345, 1, 1.1, 0.9, ], 
[106, 1, 0, 0, 0, 0, 1, 1, 0, 138, 1, 1.1, 0.9, ], 
[107, 1, 0, 0, 0, 0, 1, 1, 0, 69, 1, 1.1, 0.9, ], 
[108, 1, 78.9738, 26.8978, 0, 0, 1, 1, 0, 345, 1, 1.1, 0.9, ], 
[109, 1, 42.5003, 11.2156, 0, 0, 1, 1, 0, 69, 1, 1.1, 0.9, ], 
[110, 1, 0, 0, 0, 0, 1, 1, 0, 138, 1, 1.1, 0.9, ], 
[111, 1, 0, 0, 0, 0, 1, 1, 0, 69, 1, 1.1, 0.9, ], 
[112, 1, 70.3246, 16.6413, 0, 0, 1, 1, 0, 138, 1, 1.1, 0.9, ], 
[113, 1, 44.2823, 5.1595, 0, 0, 1, 1, 0, 69, 1, 1.1, 0.9, ], 
[114, 1, 6.6539, 1.8582, 0, 0, 1, 1, 0, 69, 1, 1.1, 0.9, ], 
[115, 1, 38.289, 16.398, 0, 0, 1, 1, 0, 69, 1, 1.1, 0.9, ], 
[116, 1, 14.044, 3.0853, 0, 0, 1, 1, 0, 69, 1, 1.1, 0.9, ], 
[117, 1, 33.6485, 1.225, 0, 0, 1, 1, 0, 69, 1, 1.1, 0.9, ], 
[118, 1, 14.1316, 3.2965, 0, 0, 1, 1, 0, 69, 1, 1.1, 0.9, ], 
[119, 1, 42.6891, 11.7756, 0, 0, 1, 1, 0, 69, 1, 1.1, 0.9, ], 
[120, 1, 63.1292, 43.0458, 0, 0, 1, 1, 0, 69, 1, 1.1, 0.9, ], 
[121, 1, 0, 0, 0, 0, 1, 1, 0, 138, 1, 1.1, 0.9, ], 
[122, 1, 0, 0, 0, 0, 1, 1, 0, 69, 1, 1.1, 0.9, ], 
[123, 1, 77.3875, 23.9922, 0, 0, 1, 1, 0, 138, 1, 1.1, 0.9, ], 
[124, 1, 0, 0, 0, 0, 1, 1, 0, 138, 1, 1.1, 0.9, ], 
[125, 1, 0, 0, 0, 0, 1, 1, 0, 69, 1, 1.1, 0.9, ], 
[126, 1, 50.0367, 18.8862, 0, 0, 1, 1, 0, 138, 1, 1.1, 0.9, ], 
[127, 1, 25.7012, 6.4514, 0, 0, 1, 1, 0, 69, 1, 1.1, 0.9, ], 
[128, 1, 31.0242, 7.4664, 0, 0, 1, 1, 0, 69, 1, 1.1, 0.9, ], 
[129, 1, 0, 0, 0, 0, 1, 1, 0, 69, 1, 1.1, 0.9, ], 
[130, 1, 73.0352, 12.277, 0, 0, 1, 1, 0, 69, 1, 1.1, 0.9, ], 
[131, 1, 41.1421, 21.8892, 0, 0, 1, 1, 0, 69, 1, 1.1, 0.9, ], 
[132, 1, 0, 0, 0, 0, 1, 1, 0, 138, 1, 1.1, 0.9, ], 
[133, 1, 70.9713, 13.0343, 0, 0, 1, 1, 0, 69, 1, 1.1, 0.9, ], 
[134, 1, 0, 0, 0, 0, 1, 1, 0, 138, 1, 1.1, 0.9, ], 
[135, 1, 0, 0, 0, 0, 1, 1, 0, 138, 1, 1.1, 0.9, ], 
[136, 1, 0, 0, 0, 0, 1, 1, 0, 69, 1, 1.1, 0.9, ], 
[137, 1, 135.163, 17.1057, 0, 0, 1, 1, 0, 138, 1, 1.1, 0.9, ], 
[138, 1, 43.015, 5.0494, 0, 0, 1, 1, 0, 69, 1, 1.1, 0.9, ], 
[139, 1, 0, 0, 0, 0, 1, 1, 0, 138, 1, 1.1, 0.9, ], 
[140, 1, 97.8886, 58.6008, 0, 0, 1, 1, 0, 69, 1, 1.1, 0.9, ], 
[141, 1, 0, 0, 0, 0, 1, 1, 0, 138, 1, 1.1, 0.9, ], 
[142, 1, 0, 0, 0, 0, 1, 1, 0, 138, 1, 1.1, 0.9, ], 
[143, 1, 0, 0, 0, 0, 1, 1, 0, 69, 1, 1.1, 0.9, ], 
[144, 1, 80.8822, 15.4344, 0, 0, 1, 1, 0, 138, 1, 1.1, 0.9, ], 
[145, 1, 45.8103, 5.3096, 0, 0, 1, 1, 0, 69, 1, 1.1, 0.9, ], 
[146, 1, 39.9731, 8.7672, 0, 0, 1, 1, 0, 69, 1, 1.1, 0.9, ], 
[147, 1, 0, 0, 0, 0, 1, 1, 0, 138, 1, 1.1, 0.9, ], 
[148, 1, 0, 0, 0, 0, 1, 1, 0, 69, 1, 1.1, 0.9, ], 
[149, 1, 69.1148, 16.1551, 0, 0, 1, 1, 0, 138, 1, 1.1, 0.9, ], 
[150, 1, 50.3295, 6.2763, 0, 0, 1, 1, 0, 69, 1, 1.1, 0.9, ], 
[151, 1, 0, 0, 0, 0, 1, 1, 0, 138, 1, 1.1, 0.9, ], 
[152, 1, 0, 0, 0, 0, 1, 1, 0, 69, 1, 1.1, 0.9, ], 
[153, 1, 54.4643, 6.339, 0, 0, 1, 1, 0, 138, 1, 1.1, 0.9, ], 
[154, 1, 76.2931, 16.1024, 0, 0, 1, 1, 0, 69, 1, 1.1, 0.9, ], 
[155, 1, 48.1384, 2.1361, 0, 0, 1, 1, 0, 69, 1, 1.1, 0.9, ], 
[156, 1, 48.0951, 21.3888, 0, 0, 1, 1, 0, 69, 1, 1.1, 0.9, ], 
[157, 1, 45.6242, 11.9388, 0, 0, 1, 1, 0, 138, 1, 1.1, 0.9, ], 
[158, 1, 71.8546, 17.0319, 0, 0, 1, 1, 0, 138, 1, 1.1, 0.9, ], 
[159, 1, 0, 0, 0, 0, 1, 1, 0, 345, 1, 1.1, 0.9, ], 
[160, 1, 0, 0, 0, 0, 1, 1, 0, 138, 1, 1.1, 0.9, ], 
[161, 1, 0, 0, 0, 0, 1, 1, 0, 69, 1, 1.1, 0.9, ], 
[162, 1, 71.1333, 10.3048, 0, 0, 1, 1, 0, 138, 1, 1.1, 0.9, ], 
[163, 1, 42.9826, 10.4407, 0, 0, 1, 1, 0, 69, 1, 1.1, 0.9, ], 
[164, 1, 27.9687, 7.4336, 0, 0, 1, 1, 0, 69, 1, 1.1, 0.9, ], 
[165, 1, 0, 0, 0, 0, 1, 1, 0, 138, 1, 1.1, 0.9, ], 
[166, 1, 0, 0, 0, 0, 1, 1, 0, 69, 1, 1.1, 0.9, ], 
[167, 1, 136.3457, 82.9488, 0, 0, 1, 1, 0, 138, 1, 1.1, 0.9, ], 
[168, 1, 25.1535, 4.7858, 0, 0, 1, 1, 0, 69, 1, 1.1, 0.9, ], 
[169, 1, 48.058, 12.7879, 0, 0, 1, 1, 0, 69, 1, 1.1, 0.9, ], 
[170, 1, 0, 0, 0, 0, 1, 1, 0, 138, 1, 1.1, 0.9, ], 
[171, 1, 0, 0, 0, 0, 1, 1, 0, 69, 1, 1.1, 0.9, ], 
[172, 1, 64.9912, 15.3476, 0, 0, 1, 1, 0, 138, 1, 1.1, 0.9, ], 
[173, 1, 49.8125, 25.7893, 0, 0, 1, 1, 0, 69, 1, 1.1, 0.9, ], 
[174, 1, 0, 0, 0, 0, 1, 1, 0, 138, 1, 1.1, 0.9, ], 
[175, 1, 0, 0, 0, 0, 1, 1, 0, 69, 1, 1.1, 0.9, ], 
[176, 1, 67.4573, 7.9139, 0, 0, 1, 1, 0, 138, 1, 1.1, 0.9, ], 
[177, 1, 32.6407, 8.9909, 0, 0, 1, 1, 0, 69, 1, 1.1, 0.9, ], 
[178, 1, 21.4716, 4.7353, 0, 0, 1, 1, 0, 69, 1, 1.1, 0.9, ], 
[179, 1, 43.0996, 5.0539, 0, 0, 1, 1, 0, 69, 1, 1.1, 0.9, ], 
[180, 1, 29.8599, 4.3108, 0, 0, 1, 1, 0, 69, 1, 1.1, 0.9, ], 
[181, 1, 0, 0, 0, 0, 1, 1, 0, 138, 1, 1.1, 0.9, ], 
[182, 1, 0, 0, 0, 0, 1, 1, 0, 69, 1, 1.1, 0.9, ], 
[183, 1, 74.5243, 17.4675, 0, 0, 1, 1, 0, 138, 1, 1.1, 0.9, ], 
[184, 1, 38.3574, 2.7, 0, 0, 1, 1, 0, 69, 1, 1.1, 0.9, ], 
[185, 1, 27.5271, 4.7391, 0, 0, 1, 1, 0, 69, 1, 1.1, 0.9, ], 
[186, 1, 35.4114, 8.3668, 0, 0, 1, 1, 0, 69, 1, 1.1, 0.9, ], 
[187, 1, 33.4529, 10.1638, 0, 0, 1, 1, 0, 69, 1, 1.1, 0.9, ], 
[188, 1, 0, 0, 0, 0, 1, 1, 0, 138, 1, 1.1, 0.9, ], 
[189, 1, 0, 0, 0, 0, 1, 1, 0, 69, 1, 1.1, 0.9, ], 
[190, 1, 54.3028, 12.1829, 0, 0, 1, 1, 0, 138, 1, 1.1, 0.9, ], 
[191, 1, 0, 0, 0, 0, 1, 1, 0, 138, 1, 1.1, 0.9, ], 
[192, 1, 50.6035, 21.9043, 0, 0, 1, 1, 0, 69, 1, 1.1, 0.9, ], 
[193, 1, 0, 0, 0, 0, 1, 1, 0, 138, 1, 1.1, 0.9, ], 
[194, 1, 0, 0, 0, 0, 1, 1, 0, 138, 1, 1.1, 0.9, ], 
[195, 1, 0, 0, 0, 0, 1, 1, 0, 69, 1, 1.1, 0.9, ], 
[196, 1, 46.9605, 7.8248, 0, 0, 1, 1, 0, 138, 1, 1.1, 0.9, ], 
[197, 1, 39.1022, 8.7138, 0, 0, 1, 1, 0, 69, 1, 1.1, 0.9, ], 
[198, 1, 0, 0, 0, 0, 1, 1, 0, 69, 1, 1.1, 0.9, ], 
[199, 1, 28.0574, 3.7781, 0, 0, 1, 1, 0, 69, 1, 1.1, 0.9, ], 
[200, 1, 35.1175, 13.8906, 0, 0, 1, 1, 0, 69, 1, 1.1, 0.9, ], 
...



    ])
    
    ## generator data
    #	bus	Pg	Qg	Qmax	Qmin	Vg	mBase	status	Pmax	Pmin
    ppc["gen"] = array([
 [511, 199.3925, 57.0965, 339.0482, -61.202, 1, 286.92, 1, 327.9644, 0, ], 
[512, 211.815, 57.0965, 344.8463, -55.4039, 1, 286.92, 1, 591.3577, 0, ], 
[513, 202.3985, 57.0965, 342.8899, -57.3604, 1, 286.92, 1, 317.4925, 0, ], 
[514, 203.4165, 57.0965, 346.3628, -53.8874, 1, 286.92, 1, 600.9917, 0, ], 
[515, 215.024, 57.0965, 343.8145, -56.4357, 1, 286.92, 1, 295.8553, 0, ], 
[516, 176.202, 57.0965, 339.2541, -60.9961, 1, 286.92, 1, 332.6789, 0, ], 
[518, 17.532, 5.273, 32.5991, -4.3684, 1, 26.5, 1, 85.3645, 0, ], 
[522, 605.927, 117.06, 694.933, -133.8995, 1, 818.6, 1, 1718.6462, 0, ], 
[523, 455.499, 117.06, 702.1599, -126.6726, 1, 818.6, 1, 1718.2232, 0, ], 
[530, 147.451, 48.715, 303.6715, -37.8245, 1, 244.8, 1, 391.2542, 0, ], 
[531, 174.0605, 48.715, 314.4059, -27.0901, 1, 244.8, 1, 328.5379, 0, ], 
[532, 168.6685, 48.715, 305.5193, -35.9767, 1, 244.8, 1, 373.4369, 0, ], 
[533, 163.709, 48.715, 302.8307, -38.6653, 1, 244.8, 1, 360.057, 0, ], 
[536, 276.28, 69.144, 475.0777, -56.7683, 1, 402, 1, 603, 0, ], 
[537, 286.569, 69.144, 489.268, -42.578, 1, 402, 1, 603, 0, ], 
[539, 9.5495, 2.524, 16.0601, -3.3439, 1, 3.67, 1, 88.008, 0, ], 
[543, 111.8905, 34.573, 220.2188, -22.1377, 1, 173.73, 1, 361.8102, 0, ], 
[544, 127.1945, 34.573, 235.4379, -6.9186, 1, 173.73, 1, 355.675, 0, ], 
[546, 116.4245, 34.573, 245.9686, 3.6121, 1, 173.73, 1, 349.4622, 0, ], 
[547, 111.503, 34.573, 218.8339, -23.5226, 1, 173.73, 1, 362.195, 0, ], 
[551, 624.0895, 154.44, 926.6983, -166.8017, 1, 1080, 1, 2414.0119, 0, ], 
[552, 626.361, 154.44, 911.9644, -181.5356, 1, 1080, 1, 2267.6643, 0, ], 
[554, 226.69, 68.06, 481.0634, 3.9734, 1, 68.4, 1, 1553.0025, 0, ], 
[558, 75.428, 27.223, 164.9203, -25.9157, 1, 136.8, 1, 286.7046, 0, ], 
[561, 82.724, 27.223, 370.8912, -5.3904, 1, 136.8, 1, 259.2143, 0, ], 
[562, 78.8815, 27.223, 177.7072, -13.1288, 1, 136.8, 1, 283.4901, 0, ], 
[563, 86.6705, 27.223, 163.7026, -27.1334, 1, 136.8, 1, 286.8621, 0, ], 
[567, 461.7685, 141.39, 853.2649, -137.8826, 1, 710.5, 1, 1065.75, 0, ], 
[568, 419.9705, 141.39, 874.5556, -116.5919, 1, 710.5, 1, 563.5328, 0, ], 
[569, 523.346, 141.39, 852.0219, -139.1256, 1, 710.5, 1, 1065.75, 0, ], 
[570, 393.325, 141.39, 854.1839, -136.9636, 1, 710.5, 1, 546.5236, 0, ], 
[575, 85.8, 21.328, 138.1991, -25.8529, 1, 124, 1, 186, 0, ], 
[576, 87.0925, 21.328, 139.1996, -24.8524, 1, 124, 1, 186, 0, ], 
[577, 68.35, 21.328, 143.6833, -20.3687, 1, 124, 1, 186, 0, ], 
[578, 70.853, 21.328, 143.523, -20.5291, 1, 124, 1, 186, 0, ], 
[581, 13.283, 3.6265, 25.6121, -2.2811, 1, 21.08, 1, 126.498, 0, ], 
[582, 40.0245, 10.8795, 66.1313, -17.5485, 1, 21.08, 1, 94.8735, 0, ], 
[587, 119.022, 36.019, 220.6304, -31.8646, 1, 181, 1, 668.1249, 0, ], 
[588, 123.0775, 36.019, 225.7276, -26.7674, 1, 181, 1, 344.3496, 0, ], 
[590, 19.265, 6.248, 31.2543, -12.5487, 1, 15.7, 1, 237.4848, 0, ], 
[594, 233.1585, 64.4265, 403.2234, -48.4079, 1, 323.75, 1, 469.2438, 0, ], 
[596, 235.478, 64.4265, 397.085, -54.5463, 1, 323.75, 1, 489.8952, 0, ], 
[597, 185.277, 64.4265, 392.309, -59.3223, 1, 323.75, 1, 507.5257, 0, ], 
[1212, 91.7425, 28.357, 177.1231, -21.6644, 1, 142.5, 1, 456.4679, 0, ], 
[1214, 86.6565, 28.357, 171.25, -27.5375, 1, 142.5, 1, 115.8618, 0, ], 
[1216, 109.2215, 34.626, 192.7151, -50.0149, 1, 87, 1, 1044, 0, ], 
[1219, 316.0745, 86.895, 595.9641, -72.4074, 1, 84.2, 1, 6062.4, 0, ], 
[1227, 127.5005, 39.577, 220.2151, -57.2234, 1, 198.88, 1, 154.3704, 0, ], 
[1228, 130.3675, 39.577, 220.4887, -56.9498, 1, 198.88, 1, 298.32, 0, ], 
[1229, 135.5645, 39.577, 221.0077, -56.4308, 1, 198.88, 1, 158.3356, 0, ], 
[1237, 129.6835, 40.934, 288.7553, 1.8038, 1, 205.7, 1, 308.55, 0, ], 
[1243, 145.9405, 39.681, 199.9842, -78.1788, 1, 199.4, 1, 299.1, 0, ], 
[1244, 123.285, 39.681, 199.9949, -78.1681, 1, 199.4, 1, 183.1934, 0, ], 
[1251, 99.6825, 35.9, 216.0953, -35.5627, 1, 180.4, 1, 150.6199, 0, ], 
[1252, 104.498, 35.9, 210.4139, -41.2441, 1, 180.4, 1, 270.6, 0, ], 
[1256, 210.1575, 66.811, 403.4172, -64.9293, 1, 335.73, 1, 503.5995, 0, ], 
[1258, 195.9485, 66.811, 390.2329, -78.1136, 1, 335.73, 1, 503.5995, 0, ], 
[1259, 203.09, 66.811, 390.2417, -78.1048, 1, 335.73, 1, 503.5995, 0, ], 
[1261, 208.251, 66.811, 393.4641, -74.8824, 1, 335.73, 1, 503.5995, 0, ], 
[1271, 132.243, 36.218, 205.0633, -48.8267, 1, 182, 1, 273, 0, ], 
[1272, 130.3275, 36.218, 200.4435, -53.4465, 1, 182, 1, 273, 0, ], 
[1273, 111.3065, 36.218, 206.0564, -47.8336, 1, 182, 1, 167.8361, 0, ], 
[1274, 124.9885, 36.218, 204.6809, -49.2091, 1, 182, 1, 273, 0, ], 
[1281, 144.997, 49.869, 296.4552, -53.1318, 1, 250.6, 1, 214.9925, 0, ], 
[1282, 170.8875, 49.869, 303.3312, -46.2558, 1, 250.6, 1, 375.9, 0, ], 
[1284, 186.507, 49.869, 305.5163, -44.0707, 1, 250.6, 1, 375.9, 0, ], 
[1285, 155.499, 49.869, 306.8723, -42.7147, 1, 250.6, 1, 195.0375, 0, ], 
[1291, 142.397, 42.732, 259.9985, -39.553, 1, 214.73, 1, 322.0995, 0, ], 
[1295, 224.2795, 64.4265, 386.2462, -65.3851, 1, 323.75, 1, 485.625, 0, ], 
[1296, 241.37, 64.4265, 382.4878, -69.1435, 1, 323.75, 1, 485.625, 0, ], 
[1297, 222.095, 64.4265, 386.1767, -65.4545, 1, 323.75, 1, 485.625, 0, ], 
[1298, 230.6285, 64.4265, 380.6724, -70.9588, 1, 323.75, 1, 485.625, 0, ], 
[1300, 185.8235, 55.64, 395.653, 5.611, 1, 69.9, 1, 3546.7631, 0, ], 
[1303, 296.1355, 91.315, 627.5896, -12.5309, 1, 229.43, 1, 349.268, 0, ], 
[1309, 111.237, 34.984, 207.2616, -37.9794, 1, 175.8, 1, 138.9271, 0, ], 
[1310, 125.8785, 34.984, 206.2604, -38.9806, 1, 175.8, 1, 263.7, 0, ], 
[1313, 16.0865, 4.139, 24.2446, -7.5929, 1, 8.33, 1, 288.792, 0, ], 
[1318, 122.399, 39.8, 233.7658, -45.2342, 1, 200, 1, 168.3184, 0, ], 
[1319, 140.125, 39.8, 234.5367, -44.4633, 1, 200, 1, 300, 0, ], 
[1320, 131.923, 39.8, 234.3669, -44.6331, 1, 200, 1, 157.5149, 0, ], 
[1325, 564.028, 160.734, 1006.939, -229.4045, 1, 934.5, 1, 1401.75, 0, ], 
[1326, 658.5845, 160.734, 1016.9747, -219.3688, 1, 934.5, 1, 1401.75, 0, ], 
[1328, 139.032, 39.01, 251.2942, -48.7568, 1, 56.7, 1, 1360.8, 0, ], 
[1330, 160.4415, 51.342, 303.9372, -55.9728, 1, 86, 1, 217.2591, 0, ], 
[1332, 21.7845, 0, 0, 0, 1, 3.5, 1, 686.388, 0, ], 
[1336, 88.498, 27.6705, 164.6332, -29.3415, 1, 139.05, 1, 208.575, 0, ], 
[1337, 101.1105, 27.6705, 164.7279, -29.2468, 1, 139.05, 1, 208.575, 0, ], 
[1343, 31.949, 9.313, 55.8551, -9.4309, 1, 46.8, 1, 181.5685, 0, ], 
[1350, 9.147, 0, 0, 0, 1, 5.1, 1, 227.2196, 0, ], 
[1360, 287.578, 81.2085, 479.2033, -90.0714, 1, 408.08, 1, 612.1245, 0, ], 
[1362, 275.2035, 81.2085, 479.144, -90.1307, 1, 408.08, 1, 612.1245, 0, ], 
[1364, 279.582, 81.2085, 487.5814, -81.6933, 1, 408.08, 1, 612.1245, 0, ], 
[1365, 245.173, 81.2085, 479.0932, -90.1816, 1, 408.08, 1, 612.1245, 0, ], 
[1377, 222.0385, 75.0395, 437.8682, -88.1615, 1, 377.08, 1, 298.6732, 0, ], 
[1378, 242.1685, 75.0395, 436.496, -89.5338, 1, 377.08, 1, 565.6245, 0, ], 
[1379, 266.0535, 75.0395, 435.7425, -90.2872, 1, 377.08, 1, 565.6245, 0, ], 
[1380, 237.232, 75.0395, 435.4667, -90.5631, 1, 377.08, 1, 565.6245, 0, ], 
[1382, 217.287, 75.0395, 435.5643, -90.4654, 1, 377.08, 1, 565.6245, 0, ], 
[1390, 182.747, 48.739, 290.8912, -50.7713, 1, 244.92, 1, 367.38, 0, ], 
[1391, 180.706, 48.739, 288.2121, -53.4504, 1, 244.92, 1, 367.38, 0, ], 
[1392, 152.2195, 48.739, 288.1959, -53.4666, 1, 244.92, 1, 367.38, 0, ], 
[1393, 147.2585, 48.739, 289.3256, -52.3369, 1, 244.92, 1, 367.38, 0, ], 
[1394, 154.943, 48.739, 289.8365, -51.826, 1, 244.92, 1, 202.6473, 0, ], 
[1398, 115.1155, 38.9375, 226.4256, -46.5287, 1, 195.67, 1, 155.0631, 0, ], 
[1400, 116.332, 38.9375, 230.2806, -42.6736, 1, 195.67, 1, 293.5005, 0, ], 
[1404, 583.8815, 148.4875, 925.6162, -216.5311, 1, 863.3, 1, 1294.95, 0, ], 
[1405, 549.8575, 148.4875, 939.4645, -202.6827, 1, 863.3, 1, 1294.95, 0, ], 
[1407, 31.706, 9.5805, 157.293, 4.9567, 1, 55.7, 1, 668.4, 0, ], 
[1410, 34.979, 12.338, 75.2525, -11.2375, 1, 62, 1, 229.3844, 0, ], 
[1414, 61.5115, 17.154, 101.6371, -18.6119, 1, 86.2, 1, 517.2, 0, ], 
[1417, 91.8925, 28.062, 174.5605, -41.2865, 1, 163.15, 1, 244.725, 0, ], 
[1418, 97.9985, 28.062, 178.142, -37.705, 1, 163.15, 1, 244.725, 0, ], 
[1423, 331.527, 110.684, 692.6147, -83.2843, 1, 556.2, 1, 834.3, 0, ], 
[1426, 90.9045, 24.935, 129.7304, -45.0631, 1, 62.65, 1, 2382.7521, 0, ], 
[1429, 72.701, 22.168, 132.2421, -23.1609, 1, 55.7, 1, 543.9165, 0, ], 
[1432, 121.2235, 33.1335, 197.5285, -34.7413, 1, 166.5, 1, 135.7639, 0, ], 
[1433, 113.4765, 33.1335, 198.6225, -33.6472, 1, 166.5, 1, 126.5828, 0, ], 
[1439, 92.842, 26.699, 161.621, -25.543, 1, 134.17, 1, 446.3009, 0, ], 
[1441, 84.17, 26.699, 161.2706, -25.8934, 1, 134.17, 1, 460.7365, 0, ], 
[1442, 88.2115, 26.699, 160.7059, -26.4581, 1, 134.17, 1, 423.3319, 0, ], 
[1443, 74.7535, 26.699, 163.1072, -24.0568, 1, 134.17, 1, 436.0163, 0, ], 
[1445, 160.353, 51.162, 300.5248, -58.1297, 1, 85.7, 1, 942.3259, 0, ], 
[1454, 137.1065, 40.397, 244.7663, -38.4187, 1, 203, 1, 164.9083, 0, ], 
[1455, 118.7315, 40.397, 247.61, -35.575, 1, 203, 1, 164.5973, 0, ], 
[1457, 28.3285, 9.373, 137.1248, 17.4788, 1, 47.1, 1, 565.6012, 0, ], 
[1458, 60.427, 18.746, 114.5603, -16.8487, 1, 47.1, 1, 1493.2337, 0, ], 
[1461, 160.055, 49.352, 342.1268, -3.8332, 1, 62, 1, 744, 0, ], 
[1466, 84.1435, 22.8355, 121.0634, -39.0128, 1, 114.75, 1, 112.5197, 0, ], 
[1474, 105.2305, 36.715, 219.9487, -37.4288, 1, 184.5, 1, 149.2427, 0, ], 
[1858, 28.235, 9.373, 67.2923, 1.5878, 1, 4.1, 1, 761.1235, 0, ], 
[1861, 162.2015, 50.1555, 315.6425, -70.1448, 1, 291.6, 1, 437.4, 0, ], 
[1868, 446.8485, 105.0365, 622.1121, -185.8112, 1, 610.67, 1, 916.0125, 0, ], 
[1870, 341.249, 105.0365, 628.681, -179.2423, 1, 610.67, 1, 916.0125, 0, ], 
[1873, 62.362, 16.856, 106.979, -22.675, 1, 49, 1, 588, 0, ], 
[1875, 159.1755, 42.726, 299.4005, -29.2345, 1, 62.1, 1, 806.1146, 0, ], 
[1877, 170.1925, 44.358, 303.9909, -37.2081, 1, 85.97, 1, 2004.504, 0, ], 
[1880, 36.5695, 10.1825, 71.9057, -6.4145, 1, 59.2, 1, 355.2, 0, ], 
[1883, 116.476, 29.24, 184.1226, -40.7874, 1, 170, 1, 255, 0, ], 
[1884, 125.0495, 29.24, 183.3544, -41.5556, 1, 170, 1, 255, 0, ], 
[1888, 106.4425, 36.815, 238.0746, -20.0004, 1, 185, 1, 175.2511, 0, ], 
[1893, 16.93, 4.128, 146.8043, 16.4861, 1, 24, 1, 906.7952, 0, ], 
[1897, 127.883, 37.89, 236.8907, -28.7173, 1, 190.4, 1, 163.8091, 0, ], 
[1903, 211.7325, 48.809, 303.6183, -71.8167, 1, 283.77, 1, 425.6625, 0, ], 
[1904, 164.758, 48.809, 303.5454, -71.8896, 1, 283.77, 1, 425.6625, 0, ], 
[1905, 184.677, 48.809, 303.8153, -71.6197, 1, 283.77, 1, 425.6625, 0, ], 
[1908, 55.278, 17.114, 116.9328, -3.0372, 1, 86, 1, 516, 0, ], 
[1912, 93.8145, 27.3125, 160.4238, -31.0399, 1, 137.25, 1, 417.1646, 0, ], 
[1913, 82.839, 27.3125, 159.9131, -31.5506, 1, 137.25, 1, 435.3873, 0, ], 
[1914, 3.104, 0.935, 6.1117, -0.44481, 1, 4.7, 1, 315.0484, 0, ], 
[1917, 13.867, 0, 0, 0, 1, 10, 1, 544.8947, 0, ], 
[1919, 19.812, 5.97, 45.4025, 3.5525, 1, 30, 1, 495.1823, 0, ], 
[1921, 31.1145, 7.1895, 133.3728, 11.3836, 1, 41.8, 1, 441.0044, 0, ], 
[1923, 14.855, 3.792, 23.0724, 1.0224, 1, 4.07, 1, 271.608, 0, ], 
[1925, 42.352, 10.5265, 61.0198, -36.7449, 1, 61.2, 1, 367.2, 0, ], 
[1927, 103.3225, 28.9155, 175.5759, -27.1198, 1, 48.43, 1, 485.1684, 0, ], 
[1929, 49.707, 14.925, 97.5456, -7.0794, 1, 75, 1, 450, 0, ], 
[1931, 48.71, 16.248, 99.3424, -14.5616, 1, 40.83, 1, 401.3139, 0, ], 
[1933, 28.456, 8.902, 85.9429, -30.6013, 1, 44.73, 1, 2147.184, 0, ], 
[1934, 24.665, 8.902, 136.5898, 5.8934, 1, 44.73, 1, 529.9643, 0, ], 
[1936, 78.356, 24.358, 15.6408, -277.3812, 1, 61.2, 1, 2964.2653, 0, ], 
[1939, 94.551, 29.253, 187.0869, -17.9781, 1, 49, 1, 882, 0, ], 
[1942, 180.708, 51.17, 320.2883, -73.3042, 1, 297.5, 1, 511.4911, 0, ], 
[1946, 111.378, 36.815, 228.3787, -29.6963, 1, 185, 1, 277.5, 0, ], 
[1950, 148.8165, 39.581, 229.2422, -48.2233, 1, 198.9, 1, 298.35, 0, ], 
[1952, 95.9425, 23.3235, 160.6339, -18.7608, 1, 45.2, 1, 516.1965, 0, ], 
[1956, 111.7735, 39.674, 231.727, -46.391, 1, 199.37, 1, 190.7292, 0, ], 
[1957, 139.0445, 39.674, 230.9165, -47.2015, 1, 199.37, 1, 183.3555, 0, ], 
[1958, 110.6735, 39.674, 232.529, -45.589, 1, 199.37, 1, 209.8311, 0, ], 
[1962, 116.245, 41.1065, 234.1983, -53.9614, 1, 206.57, 1, 160.4454, 0, ], 
[1963, 145.303, 41.1065, 235.0457, -53.114, 1, 206.57, 1, 309.8505, 0, ], 
[1964, 146.3115, 41.1065, 235.3043, -52.8555, 1, 206.57, 1, 309.8505, 0, ], 
[1968, 71.853, 24.5765, 142.9704, -60.1596, 1, 123.5, 1, 385.6035, 0, ], 
[1976, 324.667, 112.176, 659.889, -126.4725, 1, 563.7, 1, 845.55, 0, ], 
[1979, 86.1155, 22.885, 138.3902, -22.0348, 1, 115, 1, 690, 0, ], 
[1981, 84.1415, 22.885, 135.6292, -24.7958, 1, 115, 1, 690, 0, ], 
[1983, 89.1885, 29.073, 40.3146, -309.4569, 1, 73.05, 1, 1753.2, 0, ], 
[1993, 280.214, 78.864, 461.957, -90.8815, 1, 396.3, 1, 594.45, 0, ], 
[1996, 287.4955, 78.864, 472.6419, -80.1966, 1, 396.3, 1, 594.45, 0, ], 
    ])
    
    ## generator cost data
    #	2	startup	shutdown	n	c(n-1)	...	c0

    
    ## branch data
    #	fbus	tbus	r	x	b	rateA	rateB	rateC	ratio	angle	status	angmin	angmax
    ppc["branch"] = array([
[1, 3, 0.00023182, 0.0025623, 0, 99999, 99999, 99999, 0, 0, 1, -360, 360, ], 
[1, 28, 0.0041386, 0.067682, 0.0074634, 219.62, 219.62, 219.62, 0, 0, 1, -360, 360, ], 
[1, 174, 0.0052919, 0.052495, 0.016653, 241.75, 241.75, 241.75, 0, 0, 1, -360, 360, ], 
[1, 174, 0.0052919, 0.052495, 0.016653, 241.75, 241.75, 241.75, 0, 0, 1, -360, 360, ], 
[1, 247, 0.0071265, 0.089393, 0.0098533, 265.68, 265.68, 265.68, 0, 0, 1, -360, 360, ], 
[1, 248, 0.0036966, 0.052845, 0.010099, 243.83, 243.83, 243.83, 0, 0, 1, -360, 360, ], 
[2, 23, 0.010459, 0.083124, 0.0019688, 79.04, 79.04, 79.04, 0, 0, 1, -360, 360, ], 
[2, 23, 0.010459, 0.083124, 0.0019688, 79.04, 79.04, 79.04, 0, 0, 1, -360, 360, ], 
[4, 128, 0.01329, 0.067049, 0.0057833, 64.44, 64.44, 64.44, 0, 0, 1, -360, 360, ], 
[4, 164, 0.021932, 0.1478, 0.012188, 52, 52, 52, 0, 0, 1, -360, 360, ], 
[5, 4, 0.010881, 0.077329, 0.0010461, 80.95, 80.95, 80.95, 0, 0, 1, -360, 360, ], 
[5, 10, 0.0093401, 0.063882, 0.0060913, 108.59, 108.59, 108.59, 0, 0, 1, -360, 360, ], 
[6, 13, 0.013459, 0.074286, 0.0015211, 65.19, 65.19, 65.19, 0, 0, 1, -360, 360, ], 
[6, 13, 0.013459, 0.074286, 0.0015211, 65.19, 65.19, 65.19, 0, 0, 1, -360, 360, ], 
[6, 43, 0.017766, 0.12385, 0.0045901, 81.61, 81.61, 81.61, 0, 0, 1, -360, 360, ], 
[6, 43, 0.017766, 0.12385, 0.0045901, 81.61, 81.61, 81.61, 0, 0, 1, -360, 360, ], 
[6, 43, 0.017766, 0.12385, 0.0045901, 81.61, 81.61, 81.61, 0, 0, 1, -360, 360, ], 
[7, 86, 0.0043489, 0.036579, 0.034419, 256.34, 256.34, 256.34, 0, 0, 1, -360, 360, ], 
[7, 86, 0.0043489, 0.036579, 0.034419, 256.34, 256.34, 256.34, 0, 0, 1, -360, 360, ], 
[7, 86, 0.0043489, 0.036579, 0.034419, 256.34, 256.34, 256.34, 0, 0, 1, -360, 360, ], 
[8, 214, 0.017739, 0.11996, 0.001118, 105.16, 105.16, 105.16, 0, 0, 1, -360, 360, ], 
[9, 7, 0.0021402, 0.037583, 0.012132, 319.17, 319.17, 319.17, 0, 0, 1, -360, 360, ], 
[9, 11, 0.00021145, 0.0029751, 0, 99999, 99999, 99999, 0, 0, 1, -360, 360, ], 
[10, 6, 0.017026, 0.1054, 0.0011929, 86.29, 86.29, 86.29, 0, 0, 1, -360, 360, ], 
[12, 14, 0.00023877, 0.0029019, 0, 99999, 99999, 99999, 0, 0, 1, -360, 360, ], 
[13, 8, 0.016551, 0.10667, 0.0036678, 133.11, 133.11, 133.11, 0, 0, 1, -360, 360, ], 
[13, 17, 0.032051, 0.18873, 0.002358, 82.53, 82.53, 82.53, 0, 0, 1, -360, 360, ], 
[13, 187, 0.0069238, 0.042765, 0.0080114, 79.4, 79.4, 79.4, 0, 0, 1, -360, 360, ], 
[14, 9, 0.0036456, 0.054517, 0.0060302, 172.04, 172.04, 172.04, 0, 0, 1, -360, 360, ], 
[15, 151, 0.0017151, 0.028813, 0.0086048, 286.2, 286.2, 286.2, 0, 0, 1, -360, 360, ], 
[15, 211, 0.0019247, 0.010507, 0.0042522, 280.32, 280.32, 280.32, 0, 0, 1, -360, 360, ], 
[15, 232, 0.0046, 0.029799, 0.021261, 280.54, 280.54, 280.54, 0, 0, 1, -360, 360, ], 
[15, 232, 0.0046, 0.029799, 0.021261, 321.13, 321.13, 321.13, 0, 0, 1, -360, 360, ], 
[16, 21, 0.011558, 0.03573, 0.0023435, 105.45, 105.45, 105.45, 0, 0, 1, -360, 360, ], 
[16, 35, 0.0081342, 0.01956, 0.0021875, 92.42, 92.42, 92.42, 0, 0, 1, -360, 360, ], 
[16, 37, 0.012973, 0.040124, 0.00064101, 73.63, 73.63, 73.63, 0, 0, 1, -360, 360, ], 
[17, 43, 0.016747, 0.042412, 0.0016899, 99.4, 99.4, 99.4, 0, 0, 1, -360, 360, ], 
[18, 19, 0.00024917, 0.0010795, 0, 99999, 99999, 99999, 0, 0, 1, -360, 360, ], 
[18, 187, 0.018127, 0.052819, 0.002139, 73.01, 73.01, 73.01, 0, 0, 1, -360, 360, ], 
[18, 187, 0.018127, 0.052819, 0.002139, 82.62, 82.62, 82.62, 0, 0, 1, -360, 360, ], 
[20, 22, 0.00021956, 0.0011815, 0, 99999, 99999, 99999, 0, 0, 1, -360, 360, ], 
[21, 38, 0.02281, 0.052298, 0.0020084, 68, 68, 68, 0, 0, 1, -360, 360, ], 
[21, 38, 0.02281, 0.052298, 0.0020084, 68, 68, 68, 0, 0, 1, -360, 360, ], 
[22, 34, 0.0045971, 0.023751, 0.031759, 215.75, 215.75, 215.75, 0, 0, 1, -360, 360, ], 
[22, 86, 0.0024419, 0.014434, 0.0082208, 267.98, 267.98, 267.98, 0, 0, 1, -360, 360, ], 
[22, 215, 0.0031857, 0.01486, 0.013447, 258.04, 258.04, 258.04, 0, 0, 1, -360, 360, ], 
[22, 215, 0.0031857, 0.01486, 0.013447, 258.04, 258.04, 258.04, 0, 0, 1, -360, 360, ], 
[22, 215, 0.0031857, 0.01486, 0.013447, 258.04, 258.04, 258.04, 0, 0, 1, -360, 360, ], 
[22, 548, 0.0062043, 0.032937, 0.017656, 258.61, 258.61, 258.61, 0, 0, 1, -360, 360, ], 
[22, 548, 0.0062043, 0.032937, 0.017656, 258.61, 258.61, 258.61, 0, 0, 1, -360, 360, ], 
[22, 548, 0.0062043, 0.032937, 0.017656, 258.61, 258.61, 258.61, 0, 0, 1, -360, 360, ], 
[23, 177, 0.016767, 0.045456, 0.0013004, 75.07, 75.07, 75.07, 0, 0, 1, -360, 360, ], 
[24, 16, 0.011847, 0.031856, 0.0020862, 99.33, 99.33, 99.33, 0, 0, 1, -360, 360, ], 
[24, 25, 0.00026453, 0.0011016, 0, 99999, 99999, 99999, 0, 0, 1, -360, 360, ], 
[24, 41, 0.015854, 0.041633, 0.0011462, 67.07, 67.07, 67.07, 0, 0, 1, -360, 360, ], 
[24, 41, 0.015854, 0.041633, 0.0011462, 67.07, 67.07, 67.07, 0, 0, 1, -360, 360, ], 
[26, 28, 0.00028865, 0.0011221, 0, 99999, 99999, 99999, 0, 0, 1, -360, 360, ], 
[27, 23, 0.012775, 0.029958, 0.0015955, 59.21, 59.21, 59.21, 0, 0, 1, -360, 360, ], 
[27, 177, 0.014809, 0.038417, 0.0019458, 76.41, 76.41, 76.41, 0, 0, 1, -360, 360, ], 
[27, 219, 0.014672, 0.035652, 0.00088102, 55.36, 55.36, 55.36, 0, 0, 1, -360, 360, ], 
[28, 165, 0.0035655, 0.023236, 0.005893, 350, 350, 350, 0, 0, 1, -360, 360, ], 
[28, 174, 0.0014648, 0.010128, 0.0045772, 241.31, 241.31, 241.31, 0, 0, 1, -360, 360, ], 
[29, 252, 0.019081, 0.056663, 0.0010846, 60.63, 60.63, 60.63, 0, 0, 1, -360, 360, ], 
[29, 267, 0.024429, 0.064146, 0.0025853, 81.86, 81.86, 81.86, 0, 0, 1, -360, 360, ], 
[29, 557, 0.0023106, 0.0063573, 0.00032351, 96.22, 96.22, 96.22, 0, 0, 1, -360, 360, ], 
[29, 557, 0.0023106, 0.0063573, 0.00032351, 109.17, 109.17, 109.17, 0, 0, 1, -360, 360, ], 
[30, 31, 0.0017784, 0.011699, 0.0065024, 191, 191, 191, 0, 0, 1, -360, 360, ], 
[31, 33, 0.00027445, 0.0011991, 0, 99999, 99999, 99999, 0, 0, 1, -360, 360, ], 
[31, 42, 0.0062349, 0.027995, 0.0072176, 229.38, 229.38, 229.38, 0, 0, 1, -360, 360, ], 
[32, 17, 0.026409, 0.065065, 0.0020865, 68.42, 68.42, 68.42, 0, 0, 1, -360, 360, ], 
[32, 17, 0.026409, 0.065065, 0.0020865, 68.42, 68.42, 68.42, 0, 0, 1, -360, 360, ], 
[32, 283, 0.014224, 0.043246, 0.002203, 67.66, 67.66, 67.66, 0, 0, 1, -360, 360, ], 
[32, 283, 0.014224, 0.043246, 0.002203, 67.66, 67.66, 67.66, 0, 0, 1, -360, 360, ], 
[34, 31, 0.003786, 0.021402, 0.0078531, 232.2, 232.2, 232.2, 0, 0, 1, -360, 360, ], 
[34, 31, 0.003786, 0.021402, 0.0078531, 232.2, 232.2, 232.2, 0, 0, 1, -360, 360, ], 
[34, 39, 0.0041694, 0.026571, 0.0090066, 241.19, 241.19, 241.19, 0, 0, 1, -360, 360, ], 
[34, 39, 0.0041694, 0.026571, 0.0090066, 241.19, 241.19, 241.19, 0, 0, 1, -360, 360, ], 
[34, 564, 0.0058166, 0.031641, 0.0075696, 215.42, 215.42, 215.42, 0, 0, 1, -360, 360, ], 
[35, 238, 0.030037, 0.090454, 0.00849, 62.8, 62.8, 62.8, 0, 0, 1, -360, 360, ], 
[35, 557, 0.031295, 0.070611, 0.0028277, 76.09, 76.09, 76.09, 0, 0, 1, -360, 360, ], 
[35, 557, 0.031295, 0.070611, 0.0028277, 76.09, 76.09, 76.09, 0, 0, 1, -360, 360, ], 
[35, 557, 0.031295, 0.070611, 0.0028277, 76.09, 76.09, 76.09, 0, 0, 1, -360, 360, ], 
[36, 35, 0.026513, 0.047453, 0.0014133, 68.8, 68.8, 68.8, 0, 0, 1, -360, 360, ], 
[36, 35, 0.026513, 0.047453, 0.0014133, 68.8, 68.8, 68.8, 0, 0, 1, -360, 360, ], 
[36, 245, 0.029362, 0.067386, 0.0011626, 49.63, 49.63, 49.63, 0, 0, 1, -360, 360, ], 
[36, 249, 0.0080101, 0.02615, 0.00092202, 75.41, 75.41, 75.41, 0, 0, 1, -360, 360, ], 
[36, 249, 0.0080101, 0.02615, 0.00092202, 75.41, 75.41, 75.41, 0, 0, 1, -360, 360, ], 
[36, 249, 0.0080101, 0.02615, 0.00092202, 75.41, 75.41, 75.41, 0, 0, 1, -360, 360, ], 
[36, 557, 0.016418, 0.042073, 0.0024045, 101.25, 101.25, 101.25, 0, 0, 1, -360, 360, ], 
[37, 21, 0.016131, 0.029953, 0.0013101, 73.06, 73.06, 73.06, 0, 0, 1, -360, 360, ], 
[37, 35, 0.012677, 0.026814, 0.0027153, 77.95, 77.95, 77.95, 0, 0, 1, -360, 360, ], 
[37, 35, 0.012677, 0.026814, 0.0027153, 77.95, 77.95, 77.95, 0, 0, 1, -360, 360, ], 
[37, 35, 0.012677, 0.026814, 0.0027153, 77.95, 77.95, 77.95, 0, 0, 1, -360, 360, ], 
[37, 38, 0.018705, 0.060894, 0.0019669, 68.2, 68.2, 68.2, 0, 0, 1, -360, 360, ], 
[37, 38, 0.018705, 0.060894, 0.0019669, 68.2, 68.2, 68.2, 0, 0, 1, -360, 360, ], 
[37, 87, 0.022118, 0.056402, 0.0013967, 86.12, 86.12, 86.12, 0, 0, 1, -360, 360, ], 
[38, 173, 0.017771, 0.057012, 0.0011624, 92.96, 92.96, 92.96, 0, 0, 1, -360, 360, ], 
[40, 263, 0.027149, 0.071402, 0.0044677, 55.15, 55.15, 55.15, 0, 0, 1, -360, 360, ], 
[40, 276, 0.022687, 0.048631, 0.00083519, 72.1, 72.1, 72.1, 0, 0, 1, -360, 360, ], 
[40, 276, 0.022687, 0.048631, 0.00083519, 72.1, 72.1, 72.1, 0, 0, 1, -360, 360, ], 
[42, 14, 0.0049508, 0.024977, 0.010694, 198.72, 198.72, 198.72, 0, 0, 1, -360, 360, ], 
[42, 44, 0.00020998, 0.001089, 0, 99999, 99999, 99999, 0, 0, 1, -360, 360, ], 
[43, 46, 0.024165, 0.044861, 0.0012909, 89.95, 89.95, 89.95, 0, 0, 1, -360, 360, ], 
[45, 46, 0.025179, 0.060347, 0.0016296, 107.1, 107.1, 107.1, 0, 0, 1, -360, 360, ], 
[45, 275, 0.016384, 0.035907, 0.0018358, 66.64, 66.64, 66.64, 0, 0, 1, -360, 360, ], 
[46, 209, 0.023842, 0.061912, 0.0025303, 76.82, 76.82, 76.82, 0, 0, 1, -360, 360, ], 
[47, 50, 0.00023789, 0.0010948, 0, 99999, 99999, 99999, 0, 0, 1, -360, 360, ], 
[47, 524, 0.00053949, 0.0058414, 0.11891, 1062.02, 1062.02, 1062.02, 0, 0, 1, -360, 360, ], 
[48, 73, 0.014743, 0.074989, 0.016022, 226.94, 226.94, 226.94, 0, 0, 1, -360, 360, ], 
[48, 534, 0.0021676, 0.013754, 0.052351, 269.8, 269.8, 269.8, 0, 0, 1, -360, 360, ], 
[48, 534, 0.0021676, 0.013754, 0.052351, 269.8, 269.8, 269.8, 0, 0, 1, -360, 360, ], 
[48, 534, 0.0021676, 0.013754, 0.052351, 269.8, 269.8, 269.8, 0, 0, 1, -360, 360, ], 
[49, 60, 0.021832, 0.051633, 0.0035701, 71.51, 71.51, 71.51, 0, 0, 1, -360, 360, ], 
[51, 61, 0.039409, 0.11571, 0.020239, 110, 110, 110, 0, 0, 1, -360, 360, ], 
[51, 200, 0.03121, 0.071323, 0.0023794, 112.35, 112.35, 112.35, 0, 0, 1, -360, 360, ], 
[52, 54, 0.00020451, 0.0010153, 0, 99999, 99999, 99999, 0, 0, 1, -360, 360, ], 
[52, 159, 0.00026852, 0.0035522, 0.080872, 1160.4, 1160.4, 1160.4, 0, 0, 1, -360, 360, ], 
[53, 158, 0.0043886, 0.024717, 0.0091398, 247.5, 247.5, 247.5, 0, 0, 1, -360, 360, ], 
[53, 193, 0.0042106, 0.027313, 0.026654, 259.13, 259.13, 259.13, 0, 0, 1, -360, 360, ], 
[53, 193, 0.0042106, 0.027313, 0.026654, 259.13, 259.13, 259.13, 0, 0, 1, -360, 360, ], 
[53, 193, 0.0042106, 0.027313, 0.026654, 259.13, 259.13, 259.13, 0, 0, 1, -360, 360, ], 
[53, 521, 0.0064033, 0.050932, 0.0089909, 295.34, 295.34, 295.34, 0, 0, 1, -360, 360, ], 
[53, 521, 0.0064033, 0.050932, 0.0089909, 295.34, 295.34, 295.34, 0, 0, 1, -360, 360, ], 
[55, 48, 0.0054273, 0.032876, 0.013354, 200.97, 200.97, 200.97, 0, 0, 1, -360, 360, ], 
[55, 53, 0.0050183, 0.024539, 0.014982, 287.21, 287.21, 287.21, 0, 0, 1, -360, 360, ], 
[55, 53, 0.0050183, 0.024539, 0.014982, 287.21, 287.21, 287.21, 0, 0, 1, -360, 360, ], 
[55, 53, 0.0050183, 0.024539, 0.014982, 287.21, 287.21, 287.21, 0, 0, 1, -360, 360, ], 
[55, 57, 0.00029793, 0.0010061, 0, 99999, 99999, 99999, 0, 0, 1, -360, 360, ], 
[55, 521, 0.0060725, 0.030276, 0.013218, 226.91, 226.91, 226.91, 0, 0, 1, -360, 360, ], 
[55, 534, 0.0041516, 0.020921, 0.019913, 278.07, 278.07, 278.07, 0, 0, 1, -360, 360, ], 
[55, 534, 0.0041516, 0.020921, 0.019913, 278.07, 278.07, 278.07, 0, 0, 1, -360, 360, ], 
[55, 534, 0.0041516, 0.020921, 0.019913, 278.07, 278.07, 278.07, 0, 0, 1, -360, 360, ], 
[55, 538, 0.01245, 0.030612, 0.010087, 241.11, 241.11, 241.11, 0, 0, 1, -360, 360, ], 
[55, 538, 0.01245, 0.030612, 0.010087, 241.11, 241.11, 241.11, 0, 0, 1, -360, 360, ], 
[58, 56, 0.023294, 0.04945, 0.0038109, 81.24, 81.24, 81.24, 0, 0, 1, -360, 360, ], 
[58, 56, 0.023294, 0.04945, 0.0038109, 81.24, 81.24, 81.24, 0, 0, 1, -360, 360, ], 
[58, 56, 0.023294, 0.04945, 0.0038109, 81.24, 81.24, 81.24, 0, 0, 1, -360, 360, ], 
[59, 528, 0.021877, 0.055688, 0.0017226, 73.29, 73.29, 73.29, 0, 0, 1, -360, 360, ], 
[59, 528, 0.021877, 0.055688, 0.0017226, 80.37, 80.37, 80.37, 0, 0, 1, -360, 360, ], 
[60, 59, 0.02606, 0.05755, 0.0043738, 65.99, 65.99, 65.99, 0, 0, 1, -360, 360, ], 
[60, 59, 0.02606, 0.05755, 0.0043738, 65.99, 65.99, 65.99, 0, 0, 1, -360, 360, ], 
[60, 66, 0.071672, 0.18218, 0.0051759, 70.21, 70.21, 70.21, 0, 0, 1, -360, 360, ], 
[63, 65, 0.0002398, 0.0010442, 0, 99999, 99999, 99999, 0, 0, 1, -360, 360, ], 
[63, 73, 0.0089932, 0.044132, 0.021161, 204.65, 204.65, 204.65, 0, 0, 1, -360, 360, ], 
[64, 61, 0.024727, 0.050463, 0.0038936, 69.75, 69.75, 69.75, 0, 0, 1, -360, 360, ], 
[64, 62, 0.018591, 0.051683, 0.0033636, 49.99, 49.99, 49.99, 0, 0, 1, -360, 360, ], 
[66, 70, 0.077585, 0.18685, 0.0037499, 55.84, 55.84, 55.84, 0, 0, 1, -360, 360, ], 
[67, 69, 0.00024764, 0.0010933, 0, 99999, 99999, 99999, 0, 0, 1, -360, 360, ], 
[67, 71, 0.01, 0.07, 0, 220, 220, 220, 0, 0, 1, -360, 360, ], 
[67, 84, 0.017444, 0.097373, 0.062295, 193.76, 193.76, 193.76, 0, 0, 1, -360, 360, ], 
[68, 114, 0.057634, 0.097611, 0.0047817, 50.8, 50.8, 50.8, 0, 0, 1, -360, 360, ], 
[68, 540, 0.14002, 0.34522, 0.017607, 49.46, 49.46, 49.46, 0, 0, 1, -360, 360, ], 
[70, 68, 0.2959, 0.4766, 0.01024, 66.17, 66.17, 66.17, 0, 0, 1, -360, 360, ], 
[70, 68, 0.2959, 0.4766, 0.01024, 66.17, 66.17, 66.17, 0, 0, 1, -360, 360, ], 
[71, 73, 0.0002582, 0.0011618, 0, 99999, 99999, 99999, 0, 0, 1, -360, 360, ], 
[72, 62, 0.061546, 0.13676, 0.0033572, 68.81, 68.81, 68.81, 0, 0, 1, -360, 360, ], 
[72, 70, 0.043217, 0.10495, 0.0044902, 65.12, 65.12, 65.12, 0, 0, 1, -360, 360, ], 
[74, 75, 0.01578, 0.03624, 0.0037335, 44.56, 44.56, 44.56, 0, 0, 1, -360, 360, ], 
[75, 77, 0.01604, 0.051732, 0.0021837, 47.39, 47.39, 47.39, 0, 0, 1, -360, 360, ], 
[76, 78, 0.00024419, 0.001067, 0, 99999, 99999, 99999, 0, 0, 1, -360, 360, ], 
[77, 80, 0.10638, 0.2883, 0.032187, 43.17, 43.17, 43.17, 0, 0, 1, -360, 360, ], 
[79, 81, 0.00029114, 0.0010958, 0, 99999, 99999, 99999, 0, 0, 1, -360, 360, ], 
[79, 583, 0.010774, 0.057794, 0.046745, 203.21, 203.21, 203.21, 0, 0, 1, -360, 360, ], 
[80, 582, 0.13656, 0.4185, 0.0059182, 52.91, 52.91, 52.91, 0, 0, 1, -360, 360, ], 
[82, 80, 0.067057, 0.1793, 0.0042424, 51.02, 51.02, 51.02, 0, 0, 1, -360, 360, ], 
[83, 85, 0.00021567, 0.0011562, 0, 99999, 99999, 99999, 0, 0, 1, -360, 360, ], 
[84, 79, 0.017423, 0.10436, 0.036463, 178.64, 178.64, 178.64, 0, 0, 1, -360, 360, ], 
[84, 83, 7.7e-05, 0.005637, 0, 249.81, 249.81, 249.81, 0, 0, 1, -360, 360, ], 
[86, 30, 0.0021546, 0.011669, 0.020103, 223.69, 223.69, 223.69, 0, 0, 1, -360, 360, ], 
[86, 88, 0.00027264, 0.0010805, 0, 99999, 99999, 99999, 0, 0, 1, -360, 360, ], 
[86, 548, 0.0065518, 0.026769, 0.0099239, 261.71, 261.71, 261.71, 0, 0, 1, -360, 360, ], 
[86, 548, 0.0065518, 0.026769, 0.0099239, 261.71, 261.71, 261.71, 0, 0, 1, -360, 360, ], 
[87, 16, 0.009031, 0.020097, 0.0008119, 75.33, 75.33, 75.33, 0, 0, 1, -360, 360, ], 
[87, 16, 0.009031, 0.020097, 0.0008119, 75.33, 75.33, 75.33, 0, 0, 1, -360, 360, ], 
[87, 16, 0.009031, 0.020097, 0.0008119, 75.33, 75.33, 75.33, 0, 0, 1, -360, 360, ], 
[87, 245, 0.021553, 0.045231, 0.0057957, 57.45, 57.45, 57.45, 0, 0, 1, -360, 360, ], 
[89, 91, 0.00026229, 0.0011292, 0, 99999, 99999, 99999, 0, 0, 1, -360, 360, ], 
[89, 106, 0.0049332, 0.027038, 0.014529, 339.82, 339.82, 339.82, 0, 0, 1, -360, 360, ], 
[89, 106, 0.0049332, 0.027038, 0.014529, 339.82, 339.82, 339.82, 0, 0, 1, -360, 360, ], 
[89, 106, 0.0049332, 0.027038, 0.014529, 339.82, 339.82, 339.82, 0, 0, 1, -360, 360, ], 
[89, 256, 0.0032188, 0.019407, 0.0071382, 400.54, 400.54, 400.54, 0, 0, 1, -360, 360, ], 
[89, 382, 0.0024751, 0.015794, 0.025753, 340.14, 340.14, 340.14, 0, 0, 1, -360, 360, ], 
[90, 101, 0.013584, 0.040219, 0.0009246, 61.72, 61.72, 61.72, 0, 0, 1, -360, 360, ], 
[90, 241, 0.010354, 0.026583, 0.002347, 66.61, 66.61, 66.61, 0, 0, 1, -360, 360, ], 
[90, 241, 0.010354, 0.026583, 0.002347, 66.61, 66.61, 66.61, 0, 0, 1, -360, 360, ], 
[90, 255, 0.016328, 0.038658, 0.0063358, 79.03, 79.03, 79.03, 0, 0, 1, -360, 360, ], 
[90, 255, 0.016328, 0.038658, 0.0063358, 79.03, 79.03, 79.03, 0, 0, 1, -360, 360, ], 
[90, 255, 0.016328, 0.038658, 0.0063358, 79.03, 79.03, 79.03, 0, 0, 1, -360, 360, ], 
[92, 98, 0.0087805, 0.02307, 0.0011042, 100.76, 100.76, 100.76, 0, 0, 1, -360, 360, ], 
[92, 330, 0.0067899, 0.017046, 0.004771, 74.17, 74.17, 74.17, 0, 0, 1, -360, 360, ], 
[94, 262, 0.014272, 0.029344, 0.0017331, 79.5, 79.5, 79.5, 0, 0, 1, -360, 360, ], 
[94, 262, 0.014272, 0.029344, 0.0017331, 79.5, 79.5, 79.5, 0, 0, 1, -360, 360, ], 
[94, 262, 0.014272, 0.029344, 0.0017331, 79.5, 79.5, 79.5, 0, 0, 1, -360, 360, ], 
[95, 107, 0.023224, 0.059806, 0.00077137, 83.77, 83.77, 83.77, 0, 0, 1, -360, 360, ], 
[95, 323, 0.021278, 0.05543, 0.0022738, 69.02, 69.02, 69.02, 0, 0, 1, -360, 360, ], 
[96, 105, 0.00040867, 0.0051154, 0.1383, 1367.07, 1367.07, 1367.07, 0, 0, 1, -360, 360, ], 
[96, 337, 0.0011469, 0.013458, 0.24721, 1220.57, 1220.57, 1220.57, 0, 0, 1, -360, 360, ], 
[97, 99, 0.00024092, 0.001065, 0, 99999, 99999, 99999, 0, 0, 1, -360, 360, ], 
[98, 104, 0.015305, 0.040722, 0.0026314, 84.93, 84.93, 84.93, 0, 0, 1, -360, 360, ], 
[98, 104, 0.015305, 0.040722, 0.0026314, 84.93, 84.93, 84.93, 0, 0, 1, -360, 360, ], 
...

    ])

    ppc["gencost"] = array([
[2, 0, 0, 3, 0.01633, 21.37, 0, ], 
[2, 0, 0, 3, 0.01202, 21.1, 0, ], 
[2, 0, 0, 3, 0.01656, 22.01, 0, ], 
[2, 0, 0, 3, 0.01213, 19.75, 0, ], 
[2, 0, 0, 3, 0.01459, 24.09, 0, ], 
[2, 0, 0, 3, 0.01908, 19.76, 0, ], 
[2, 0, 0, 3, 0, 17, 0, ], 
[2, 0, 0, 3, 0.00103, 9.129, 0, ], 
[2, 0, 0, 3, 0.001759, 8.167, 0, ], 
[2, 0, 0, 3, 0.01985, 17.37, 0, ], 
[2, 0, 0, 3, 0.01402, 21.62, 0, ], 
[2, 0, 0, 3, 0.0159, 19.4, 0, ], 
[2, 0, 0, 3, 0.01907, 19.25, 0, ], 
[2, 0, 0, 3, 0, 30, 0, ], 
[2, 0, 0, 3, 0, 30, 0, ], 
[2, 0, 0, 3, 0, 30, 0, ], 
[2, 0, 0, 3, 0.01391, 16.01, 0, ], 
[2, 0, 0, 3, 0.01059, 18.9, 0, ], 
[2, 0, 0, 3, 0.01383, 17.44, 0, ], 
[2, 0, 0, 3, 0.01392, 15.92, 0, ], 
[2, 0, 0, 3, 0.0017, 8.322, 0, ], 
[2, 0, 0, 3, 0.001699, 8.325, 0, ], 
[2, 0, 0, 3, 0, 16.728, 0, ], 
[2, 0, 0, 3, 0.0145, 14.87, 0, ], 
[2, 0, 0, 3, 0.02017, 17.96, 0, ], 
[2, 0, 0, 3, 0.01708, 16.48, 0, ], 
[2, 0, 0, 3, 0.01358, 14.24, 0, ], 
[2, 0, 0, 3, 0.02042, 25.4, 0, ], 
[2, 0, 0, 3, 0.02065, 22.28, 0, ], 
[2, 0, 0, 3, 0.01162, 29.89, 0, ], 
[2, 0, 0, 3, 0.02698, 23.34, 0, ], 
[2, 0, 0, 3, 0, 30, 0, ], 
[2, 0, 0, 3, 0, 30, 0, ], 
[2, 0, 0, 3, 0, 30, 0, ], 
[2, 0, 0, 3, 0, 30, 0, ], 
[2, 0, 0, 3, 0, 30, 0, ], 
[2, 0, 0, 3, 0, 30, 0, ], 
[2, 0, 0, 3, 0.01864, 19.46, 0, ], 
[2, 0, 0, 3, 0.02025, 21.28, 0, ], 
[2, 0, 0, 3, 0, 15.265, 0, ], 
[2, 0, 0, 3, 0.01264, 21.19, 0, ], 
[2, 0, 0, 3, 0.01249, 20.53, 0, ], 
[2, 0, 0, 3, 0.01929, 17.33, 0, ], 
[2, 0, 0, 3, 0.02341, 27.19, 0, ], 
[2, 0, 0, 3, 0.02612, 28.97, 0, ], 
[2, 0, 0, 3, 0, 27.99, 0, ], 
[2, 0, 0, 3, 0, 30, 0, ], 
[2, 0, 0, 3, 0.03375, 29.9, 0, ], 
[2, 0, 0, 3, 0.03004, 32.67, 0, ], 
[2, 0, 0, 3, 0.0281, 29.57, 0, ], 
[2, 0, 0, 3, 0.02786, 27.39, 0, ], 
[2, 0, 0, 3, 0.02526, 34.17, 0, ], 
[2, 0, 0, 3, 0.0296, 27.69, 0, ], 
[2, 0, 0, 3, 0.0306, 27.07, 0, ], 
[2, 0, 0, 3, 0.0347, 31.91, 0, ], 
[2, 0, 0, 3, 0.0268, 30.99, 0, ], 
[2, 0, 0, 3, 0.0315, 30.79, 0, ], 
[2, 0, 0, 3, 0.03024, 30.23, 0, ], 
[2, 0, 0, 3, 0.02719, 29.53, 0, ], 
[2, 0, 0, 3, 0.01859, 30.36, 0, ], 
[2, 0, 0, 3, 0.01994, 29.9, 0, ], 
[2, 0, 0, 3, 0.02657, 25.4, 0, ], 
[2, 0, 0, 3, 0.0267, 30.43, 0, ], 
[2, 0, 0, 3, 0.029, 26.4, 0, ], 
[2, 0, 0, 3, 0.02399, 29.87, 0, ], 
[2, 0, 0, 3, 0.01814, 33.13, 0, ], 
[2, 0, 0, 3, 0.02963, 28.73, 0, ], 
[2, 0, 0, 3, 0.02888, 34.36, 0, ], 
[2, 0, 0, 3, 0.0253, 36.57, 0, ], 
[2, 0, 0, 3, 0.02194, 39.92, 0, ], 
[2, 0, 0, 3, 0.02213, 31.19, 0, ], 
[2, 0, 0, 3, 0.02108, 33.81, 0, ], 
[2, 0, 0, 3, 0, 28.5825, 0, ], 
[2, 0, 0, 3, 0.02879, 29.55, 0, ], 
[2, 0, 0, 3, 0.02837, 27.65, 0, ], 
[2, 0, 0, 3, 0.02073, 30.25, 0, ], 
[2, 0, 0, 3, 0, 30, 0, ], 
[2, 0, 0, 3, 0.03427, 27.54, 0, ], 
[2, 0, 0, 3, 0.02221, 30.39, 0, ], 
[2, 0, 0, 3, 0.02558, 29.29, 0, ], 
[2, 0, 0, 3, 0, 30, 0, ], 
[2, 0, 0, 3, 0, 30, 0, ], 
[2, 0, 0, 3, 0, 30, 0, ], 
[2, 0, 0, 3, 0, 28.9633, 0, ], 
[2, 0, 0, 3, 0, 0, 0, ], 
[2, 0, 0, 3, 0.02075, 26.75, 0, ], 
[2, 0, 0, 3, 0.01686, 30.82, 0, ], 
[2, 0, 0, 3, 0, 25.33, 0, ], 
[2, 0, 0, 3, 0, 0, 0, ], 
[2, 0, 0, 3, 0.02695, 39.13, 0, ], 
[2, 0, 0, 3, 0.02893, 34.57, 0, ], 
[2, 0, 0, 3, 0.02795, 37.18, 0, ], 
[2, 0, 0, 3, 0.03193, 29.68, 0, ], 
[2, 0, 0, 3, 0.02565, 26.95, 0, ], 
[2, 0, 0, 3, 0.03269, 35.34, 0, ], 
[2, 0, 0, 3, 0.02369, 38.06, 0, ], 
[2, 0, 0, 3, 0.03017, 29.84, 0, ], 
[2, 0, 0, 3, 0.03019, 29.9, 0, ], 
[2, 0, 0, 3, 0.01777, 33.22, 0, ], 
[2, 0, 0, 3, 0.01855, 32.79, 0, ], 
[2, 0, 0, 3, 0.03083, 29.76, 0, ], 
[2, 0, 0, 3, 0.0303, 30.92, 0, ], 
[2, 0, 0, 3, 0.02687, 27.25, 0, ], 
[2, 0, 0, 3, 0.03529, 26.84, 0, ], 
[2, 0, 0, 3, 0.03644, 28.87, 0, ], 
[2, 0, 0, 3, 0, 30, 0, ], 
[2, 0, 0, 3, 0, 30, 0, ], 
[2, 0, 0, 3, 0, 30, 0, ], 
[2, 0, 0, 3, 0, 28.52, 0, ], 
[2, 0, 0, 3, 0, 30.13, 0, ], 
[2, 0, 0, 3, 0.0478, 35.25, 0, ], 
[2, 0, 0, 3, 0.04243, 34.62, 0, ], 
[2, 0, 0, 3, 0.02982, 32.19, 0, ], 
[2, 0, 0, 3, 0, 24.99, 0, ], 
[2, 0, 0, 3, 0, 26.99, 0, ], 
[2, 0, 0, 3, 0.01748, 30.13, 0, ], 
[2, 0, 0, 3, 0.02742, 30.74, 0, ], 
[2, 0, 0, 3, 0.01806, 26.62, 0, ], 
[2, 0, 0, 3, 0.02116, 24.82, 0, ], 
[2, 0, 0, 3, 0.02672, 27.57, 0, ], 
[2, 0, 0, 3, 0.0268, 26.2, 0, ], 
[2, 0, 0, 3, 0, 27.9333, 0, ], 
[2, 0, 0, 3, 0.02656, 28.54, 0, ], 
[2, 0, 0, 3, 0.0347, 28.17, 0, ], 
[2, 0, 0, 3, 0.03234, 28.39, 0, ], 
[2, 0, 0, 3, 0, 26.77, 0, ], 
[2, 0, 0, 3, 0, 27.9275, 0, ], 
[2, 0, 0, 3, 0.01762, 28.18, 0, ], 
[2, 0, 0, 3, 0.03234, 27.94, 0, ], 
[2, 0, 0, 3, 0, 25.46, 0, ], 
[2, 0, 0, 3, 0.06894, 36.43, 0, ], 
[2, 0, 0, 3, 0.05273, 74.48, 0, ], 
[2, 0, 0, 3, 0.09666, 44.48, 0, ], 
[2, 0, 0, 3, 0, 35.99, 0, ], 
[2, 0, 0, 3, 0, 30, 0, ], 
[2, 0, 0, 3, 0, 30, 0, ], 
[2, 0, 0, 3, 0, 37.74, 0, ], 
[2, 0, 0, 3, 0.05165, 44.6, 0, ], 
[2, 0, 0, 3, 0.02695, 39.75, 0, ], 
[2, 0, 0, 3, 0.0296, 26.18, 0, ], 
[2, 0, 0, 3, 0, 30, 0, ], 
[2, 0, 0, 3, 0.02743, 31.01, 0, ], 
[2, 0, 0, 3, 0.04144, 47.29, 0, ], 
[2, 0, 0, 3, 0.07279, 40.5, 0, ], 
[2, 0, 0, 3, 0.057, 41.11, 0, ], 
[2, 0, 0, 3, 0, 31.91, 0, ], 
[2, 0, 0, 3, 0.02668, 29.73, 0, ], 
[2, 0, 0, 3, 0.02668, 27.77, 0, ], 
[2, 0, 0, 3, 0, 24.41, 0, ], 
[2, 0, 0, 3, 0, 0, 0, ], 
[2, 0, 0, 3, 0, 28.83, 0, ], 
[2, 0, 0, 3, 0, 30, 0, ], 
[2, 0, 0, 3, 0, 30, 0, ], 
[2, 0, 0, 3, 0, 30, 0, ], 
[2, 0, 0, 3, 0, 26.91, 0, ], 
[2, 0, 0, 3, 0, 31.79, 0, ], 
[2, 0, 0, 3, 0, 27.015, 0, ], 
[2, 0, 0, 3, 0.057, 30.48, 0, ], 
[2, 0, 0, 3, 0, 29.64, 0, ], 
[2, 0, 0, 3, 0, 27.95, 0, ], 
[2, 0, 0, 3, 0, 27.8567, 0, ], 
[2, 0, 0, 3, 0, 30, 0, ], 
[2, 0, 0, 3, 0.03836, 32.16, 0, ], 
[2, 0, 0, 3, 0.02568, 37.79, 0, ], 
[2, 0, 0, 3, 0, 30, 0, ], 
[2, 0, 0, 3, 0.03837, 28.43, 0, ], 
[2, 0, 0, 3, 0.02477, 31.4, 0, ], 
[2, 0, 0, 3, 0.03365, 26.61, 0, ], 
[2, 0, 0, 3, 0.03202, 29.2, 0, ], 
[2, 0, 0, 3, 0.02811, 32.58, 0, ], 
[2, 0, 0, 3, 0.02407, 31.18, 0, ], 
[2, 0, 0, 3, 0.02247, 27.33, 0, ], 
[2, 0, 0, 3, 0.03221, 32.98, 0, ], 
[2, 0, 0, 3, 0.01729, 31.76, 0, ], 
[2, 0, 0, 3, 0.01891, 31, 0, ], 
[2, 0, 0, 3, 0, 30.65, 0, ], 
[2, 0, 0, 3, 0.02398, 39.2, 0, ], 
[2, 0, 0, 3, 0.02349, 38.84, 0, ], 
    ])

    return ppc